Version 4
SHEET 1 2152 948
WIRE 320 -160 304 -160
WIRE 304 -96 304 -160
WIRE 32 -80 32 -160
WIRE -48 0 -192 0
WIRE -192 32 -192 0
WIRE -48 80 -48 0
WIRE 64 80 -48 80
WIRE 256 112 256 16
WIRE -192 144 -192 112
WIRE -192 144 -448 144
WIRE 32 144 32 0
WIRE 64 144 32 144
WIRE 304 144 304 -16
WIRE 304 144 288 144
WIRE 336 144 304 144
WIRE -192 176 -192 144
WIRE 432 176 400 176
WIRE 544 176 512 176
WIRE 560 176 544 176
WIRE 880 192 832 192
WIRE 944 192 880 192
WIRE 1104 192 1024 192
WIRE 1184 192 1104 192
WIRE 1344 192 1264 192
WIRE 64 208 -48 208
WIRE 304 208 304 144
WIRE 400 224 400 176
WIRE 544 224 544 176
WIRE 880 224 880 192
WIRE -304 288 -352 288
WIRE -192 288 -192 256
WIRE -192 288 -224 288
WIRE -48 288 -48 208
WIRE -48 288 -192 288
WIRE 1104 304 1104 192
WIRE 1200 304 1104 304
WIRE 1216 304 1200 304
WIRE -448 320 -448 144
WIRE 304 320 304 288
WIRE 1344 320 1344 192
WIRE 1344 320 1264 320
WIRE 1408 320 1344 320
WIRE 880 336 880 304
WIRE 1200 336 1104 336
WIRE 400 352 400 304
WIRE 544 368 544 304
WIRE 1680 368 1632 368
WIRE 1824 368 1760 368
WIRE 1408 400 1408 320
WIRE 1504 400 1408 400
WIRE 1632 400 1632 368
WIRE 1632 400 1584 400
WIRE 848 432 752 432
WIRE 1104 432 1104 336
WIRE 1104 432 928 432
WIRE 1632 464 1632 400
WIRE 1680 464 1632 464
WIRE 1824 464 1824 368
WIRE 1824 464 1744 464
WIRE 1104 480 1104 432
WIRE -320 528 -320 464
WIRE 1504 544 1424 544
WIRE 1632 544 1632 464
WIRE 1632 544 1584 544
WIRE 1680 544 1632 544
WIRE 1824 560 1824 464
WIRE 1824 560 1744 560
WIRE 1904 560 1824 560
WIRE 2080 560 1984 560
WIRE 1680 576 1632 576
WIRE 1104 592 1104 560
WIRE 672 608 672 544
WIRE 144 640 144 608
WIRE 256 640 256 608
WIRE 384 640 384 576
WIRE 1632 640 1632 576
WIRE -320 688 -320 608
WIRE -240 688 -320 688
WIRE 672 736 672 688
WIRE 144 752 144 720
WIRE 256 752 256 720
WIRE 384 752 384 720
WIRE -240 768 -240 688
WIRE -320 848 -320 800
FLAG 144 752 0
FLAG 144 608 VCC
FLAG 160 208 VSS
FLAG 160 80 VCC
FLAG -320 464 VCC
FLAG 304 -160 VCC
FLAG 256 752 0
FLAG 256 608 VSS
FLAG 384 752 0
FLAG 304 320 0
FLAG 400 352 VSS
FLAG 384 576 Vin
FLAG -352 288 Vin
FLAG -448 320 0
FLAG 560 176 Vout
FLAG 544 368 0
FLAG 32 -160 VCC
FLAG 256 16 CMN
FLAG -320 848 CMN
FLAG 1232 288 VCC
FLAG 1232 352 VSS
FLAG 1104 592 0
FLAG 752 432 VCC
FLAG 880 336 0
FLAG 672 736 0
FLAG 672 544 Vcv
FLAG 752 192 Vcv
FLAG 1632 640 0
FLAG 1424 544 VCC
FLAG 1712 528 VCC
FLAG 1712 592 VSS
FLAG 2080 560 CMN
FLAG -240 768 0
SYMBOL LM13700 128 64 R0
SYMATTR InstName U1
SYMBOL voltage 144 624 R0
WINDOW 123 0 0 Left 2
WINDOW 39 0 0 Left 2
SYMATTR InstName V1
SYMATTR Value 12
SYMBOL res 384 208 R0
SYMATTR InstName R3
SYMATTR Value 4.7k
SYMBOL voltage 384 624 R0
WINDOW 123 24 124 Left 2
WINDOW 39 0 0 Left 2
SYMATTR Value2 AC 1m
SYMATTR InstName V2
SYMATTR Value SINE(0 5 1k)
SYMBOL current -320 528 R0
SYMATTR InstName I1
SYMATTR Value PWL(0 0 2m 0 8m 1m)
SYMBOL res 288 -112 R0
SYMATTR InstName R4
SYMATTR Value 235k
SYMBOL res 288 192 R0
SYMATTR InstName R5
SYMATTR Value 33k
SYMBOL voltage 256 624 R0
WINDOW 123 0 0 Left 2
WINDOW 39 0 0 Left 2
SYMATTR InstName V3
SYMATTR Value -12
SYMBOL res -208 16 R0
SYMATTR InstName R1
SYMATTR Value 980
SYMBOL res -208 160 R0
SYMATTR InstName R2
SYMATTR Value 1020
SYMBOL res -208 272 R90
WINDOW 0 0 56 VBottom 2
WINDOW 3 32 56 VTop 2
SYMATTR InstName R6
SYMATTR Value 68k
SYMBOL res 528 160 R90
WINDOW 0 0 56 VBottom 2
WINDOW 3 32 56 VTop 2
SYMATTR InstName R7
SYMATTR Value 1k
SYMBOL res 528 208 R0
SYMATTR InstName R8
SYMATTR Value 100k
SYMBOL res 16 -96 R0
SYMATTR InstName R9
SYMATTR Value 33k
SYMBOL res -336 704 R0
SYMATTR InstName R11
SYMATTR Value 10k
SYMBOL Opamps\\opamp2 1232 256 R0
SYMATTR InstName U2
SYMATTR Value TL071
SYMBOL res 1088 464 R0
SYMATTR InstName R10
SYMATTR Value 150
SYMBOL res 832 448 R270
WINDOW 0 32 56 VTop 2
WINDOW 3 0 56 VBottom 2
SYMATTR InstName R12
SYMATTR Value 100k
SYMBOL res 1280 176 R90
WINDOW 0 0 56 VBottom 2
WINDOW 3 32 56 VTop 2
SYMATTR InstName R13
SYMATTR Value 100k
SYMBOL res 1040 176 R90
WINDOW 0 0 56 VBottom 2
WINDOW 3 32 56 VTop 2
SYMATTR InstName R14
SYMATTR Value 47k
SYMBOL res 864 208 R0
SYMATTR InstName R15
SYMATTR Value 680
SYMBOL res 848 176 R90
WINDOW 0 0 56 VBottom 2
WINDOW 3 32 56 VTop 2
SYMATTR InstName R16
SYMATTR Value 47k
SYMBOL voltage 672 592 R0
SYMATTR InstName Vcv
SYMATTR Value PWL(0 0 2m 0 8m 5)
SYMBOL Opamps\\opamp2 1712 496 R0
SYMATTR InstName U3
SYMATTR Value TL071
SYMBOL res 1776 352 R90
WINDOW 0 0 56 VBottom 2
WINDOW 3 32 56 VTop 2
SYMATTR InstName R17
SYMATTR Value 47000
SYMBOL res 1600 384 R90
WINDOW 0 0 56 VBottom 2
WINDOW 3 32 56 VTop 2
SYMATTR InstName R18
SYMATTR Value 470
SYMBOL res 1600 528 R90
WINDOW 0 0 56 VBottom 2
WINDOW 3 32 56 VTop 2
SYMATTR InstName R19
SYMATTR Value 68000
SYMBOL diode 1744 448 R90
WINDOW 0 0 32 VBottom 2
WINDOW 3 32 32 VTop 2
SYMATTR InstName D1
SYMATTR Value 1N4148
SYMBOL res 2000 544 R90
WINDOW 0 0 56 VBottom 2
WINDOW 3 32 56 VTop 2
SYMATTR InstName R20
SYMATTR Value 10k
TEXT 488 -152 Left 2 !.lib lm13700.sub
TEXT 488 -184 Left 2 !.tran 1u 10m
TEXT 496 -120 Left 2 !.include TL071.mod
