Version 4
SHEET 1 3496 948
WIRE 912 -224 912 -272
WIRE 320 -160 304 -160
WIRE 304 -96 304 -160
WIRE 912 -96 912 -144
WIRE 32 -80 32 -160
WIRE -48 0 -192 0
WIRE -192 32 -192 0
WIRE 912 32 912 -16
WIRE 1168 32 912 32
WIRE 1312 32 1248 32
WIRE 912 64 912 32
WIRE -48 80 -48 0
WIRE 64 80 -48 80
WIRE 256 112 256 16
WIRE -192 144 -192 112
WIRE -192 144 -448 144
WIRE 32 144 32 0
WIRE 64 144 32 144
WIRE 304 144 304 -16
WIRE 304 144 288 144
WIRE 336 144 304 144
WIRE 1168 160 1072 160
WIRE 1312 160 1312 32
WIRE 1312 160 1248 160
WIRE 1376 160 1312 160
WIRE 1520 160 1456 160
WIRE -192 176 -192 144
WIRE 432 176 400 176
WIRE 544 176 512 176
WIRE 560 176 544 176
WIRE 912 192 912 144
WIRE 64 208 -48 208
WIRE 304 208 304 144
WIRE 400 224 400 176
WIRE 544 224 544 176
WIRE 160 256 160 208
WIRE -304 288 -352 288
WIRE -192 288 -192 256
WIRE -192 288 -224 288
WIRE -48 288 -48 208
WIRE -48 288 -192 288
WIRE 1168 288 1072 288
WIRE 1312 288 1312 160
WIRE 1312 288 1248 288
WIRE 1376 288 1312 288
WIRE 1520 304 1520 160
WIRE 1520 304 1440 304
WIRE 1632 304 1520 304
WIRE -448 320 -448 144
WIRE 304 320 304 288
WIRE 912 320 912 272
WIRE 1376 320 1312 320
WIRE 400 352 400 304
WIRE 1072 352 1072 288
WIRE 1312 352 1312 320
WIRE 1904 352 1856 352
WIRE 2048 352 1984 352
WIRE 160 368 160 320
WIRE 544 368 544 304
WIRE 1632 384 1632 304
WIRE 1728 384 1632 384
WIRE 1856 384 1856 352
WIRE 1856 384 1808 384
WIRE 1856 448 1856 384
WIRE 1904 448 1856 448
WIRE 2048 448 2048 352
WIRE 2048 448 1968 448
WIRE -320 528 -320 464
WIRE 1728 528 1648 528
WIRE 1856 528 1856 448
WIRE 1856 528 1808 528
WIRE 1904 528 1856 528
WIRE 2048 544 2048 448
WIRE 2048 544 1968 544
WIRE 2128 544 2048 544
WIRE 2304 544 2208 544
WIRE 1904 560 1856 560
WIRE 672 608 672 544
WIRE 1856 624 1856 560
WIRE 144 640 144 608
WIRE 256 640 256 608
WIRE 384 640 384 576
WIRE -320 688 -320 608
WIRE -240 688 -320 688
WIRE 672 736 672 688
WIRE 144 752 144 720
WIRE 256 752 256 720
WIRE 384 752 384 720
WIRE -240 768 -240 688
WIRE -320 848 -320 800
FLAG 144 752 0
FLAG 144 608 VCC
FLAG 160 368 VSS
FLAG 160 80 VCC
FLAG -320 464 VCC
FLAG 304 -160 VCC
FLAG 256 752 0
FLAG 256 608 VSS
FLAG 384 752 0
FLAG 304 320 0
FLAG 400 352 VSS
FLAG 384 576 Vin
FLAG -352 288 Vin
FLAG -448 320 0
FLAG 560 176 Vout
FLAG 544 368 0
FLAG 32 -160 VCC
FLAG 256 16 CMN
FLAG -320 848 CMN
FLAG 672 736 0
FLAG 672 544 Vcv
FLAG -240 768 0
FLAG 1408 272 VCC
FLAG 1408 336 VSS
FLAG 1072 352 0
FLAG 1312 352 0
FLAG 1072 160 Vcv
FLAG 912 320 VSS
FLAG 1856 624 0
FLAG 1648 528 VCC
FLAG 1936 512 VCC
FLAG 1936 576 VSS
FLAG 2304 544 CMN
FLAG 912 -272 VCC
SYMBOL LM13700 128 64 R0
SYMATTR InstName U1
SYMBOL voltage 144 624 R0
WINDOW 123 0 0 Left 2
WINDOW 39 0 0 Left 2
SYMATTR InstName V1
SYMATTR Value 12
SYMBOL res 384 208 R0
SYMATTR InstName R3
SYMATTR Value 4.7k
SYMBOL voltage 384 624 R0
WINDOW 123 24 124 Left 2
WINDOW 39 0 0 Left 2
SYMATTR Value2 AC 1m
SYMATTR InstName V2
SYMATTR Value SINE(0 5 1k)
SYMBOL current -320 528 R0
SYMATTR InstName I1
SYMATTR Value PWL(0 0 2m 0 8m 1m)
SYMBOL res 288 -112 R0
SYMATTR InstName R4
SYMATTR Value 235k
SYMBOL res 288 192 R0
SYMATTR InstName R5
SYMATTR Value 33k
SYMBOL voltage 256 624 R0
WINDOW 123 0 0 Left 2
WINDOW 39 0 0 Left 2
SYMATTR InstName V3
SYMATTR Value -12
SYMBOL res -208 16 R0
SYMATTR InstName R1
SYMATTR Value 980
SYMBOL res -208 160 R0
SYMATTR InstName R2
SYMATTR Value 1020
SYMBOL res -208 272 R90
WINDOW 0 0 56 VBottom 2
WINDOW 3 32 56 VTop 2
SYMATTR InstName R6
SYMATTR Value 68k
SYMBOL res 528 160 R90
WINDOW 0 0 56 VBottom 2
WINDOW 3 32 56 VTop 2
SYMATTR InstName R7
SYMATTR Value 1k
SYMBOL res 528 208 R0
SYMATTR InstName R8
SYMATTR Value 100k
SYMBOL res 16 -96 R0
SYMATTR InstName R9
SYMATTR Value 33k
SYMBOL res -336 704 R0
SYMATTR InstName R11
SYMATTR Value 10k
SYMBOL voltage 672 592 R0
SYMATTR InstName Vcv
SYMATTR Value PWL(0 0 2m 0 8m 5)
SYMBOL Opamps\\opamp2 1408 240 R0
SYMATTR InstName U4
SYMATTR Value TL071
SYMBOL res 1472 144 R90
WINDOW 0 0 56 VBottom 2
WINDOW 3 32 56 VTop 2
SYMATTR InstName R21
SYMATTR Value 3.3k
SYMBOL res 1264 272 R90
WINDOW 0 0 56 VBottom 2
WINDOW 3 32 56 VTop 2
SYMATTR InstName R22
SYMATTR Value 3.3k
SYMBOL res 1264 144 R90
WINDOW 0 0 56 VBottom 2
WINDOW 3 32 56 VTop 2
SYMATTR InstName R23
SYMATTR Value 100k
SYMBOL res 1264 16 R90
WINDOW 0 0 56 VBottom 2
WINDOW 3 32 56 VTop 2
SYMATTR InstName R24
SYMATTR Value 100k
SYMBOL res 896 176 R0
SYMATTR InstName R25
SYMATTR Value 6.8k
SYMBOL res 896 -240 R0
SYMATTR InstName R26
SYMATTR Value 10k
SYMBOL Opamps\\opamp2 1936 480 R0
SYMATTR InstName U5
SYMATTR Value TL071
SYMBOL res 2000 336 R90
WINDOW 0 0 56 VBottom 2
WINDOW 3 32 56 VTop 2
SYMATTR InstName R27
SYMATTR Value 47000
SYMBOL res 1824 368 R90
WINDOW 0 0 56 VBottom 2
WINDOW 3 32 56 VTop 2
SYMATTR InstName R28
SYMATTR Value 470
SYMBOL res 1824 512 R90
WINDOW 0 0 56 VBottom 2
WINDOW 3 32 56 VTop 2
SYMATTR InstName R29
SYMATTR Value 68000
SYMBOL diode 1968 432 R90
WINDOW 0 0 32 VBottom 2
WINDOW 3 32 32 VTop 2
SYMATTR InstName D2
SYMATTR Value 1N4148
SYMBOL res 2224 528 R90
WINDOW 0 0 56 VBottom 2
WINDOW 3 32 56 VTop 2
SYMATTR InstName R30
SYMATTR Value 10k
SYMBOL diode 144 256 R0
SYMATTR InstName D1
SYMATTR Value 1N4148
SYMBOL res 896 -112 R0
SYMATTR InstName R10
SYMATTR Value 5k
SYMBOL res 896 48 R0
SYMATTR InstName R12
SYMATTR Value 5k
TEXT 488 -152 Left 2 !.lib lm13700.sub
TEXT 488 -184 Left 2 !.tran 1u 10m
TEXT 496 -120 Left 2 !.include TL071.mod
